[General]
network = jingqin
cpu-time-limit = 1000s
sim-time-limit = 100s

**.numCM = 100

jingqin.ch.CH_task_input_filename = "input/tasks"
jingqin.ch.CH_task_output_filename = "output/tasks"
jingqin.ch.CM_status_input_filename = "input/status"
jingqin.ch.CM_status_output_filename = "output/status"